# generated using pymatgen
data_Mg2H2N
_symmetry_space_group_name_H-M   P-3m1
_cell_length_a   4.75768000
_cell_length_b   4.75768000
_cell_length_c   5.08720640
_cell_angle_alpha   90.00000000
_cell_angle_beta   90.00000000
_cell_angle_gamma   120.00000000
_symmetry_Int_Tables_number   164
_chemical_formula_structural   Mg2H2N
_chemical_formula_sum   'Mg12 H12 N6'
_cell_volume   99.72417368
_cell_formula_units_Z   6
loop_
 _symmetry_equiv_pos_site_id
 _symmetry_equiv_pos_as_xyz
  1  'x, y, z'
  2  'x, y, z'
  3  '-x, -y, -z'
  4  '-x, -y, -z'
  5  '-y, x-y, z'
  6  '-y, x-y, z'
  7  'y, -x+y, -z'
  8  'y, -x+y, -z'
  9  '-x+y, -x, z'
  10  '-x+y, -x, z'
  11  'x-y, x, -z'
  12  'x-y, x, -z'
  13  'y, x, -z'
  14  'y, x, -z'
  15  '-y, -x, z'
  16  '-y, -x, z'
  17  'x-y, -y, -z'
  18  'x-y, -y, -z'
  19  '-x+y, y, z'
  20  '-x+y, y, z'
  21  '-x, -x+y, -z'
  22  '-x, -x+y, -z'
  23  'x, x-y, z'
  24  'x, x-y, z'
loop_
 _atom_site_type_symbol
 _atom_site_label
 _atom_site_symmetry_multiplicity
 _atom_site_fract_x
 _atom_site_fract_y
 _atom_site_fract_z
 _atom_site_occupancy
  Mg  Mg0  12  0.03000000  0.12000000  0.65000000  1.0
  H  H1  12  0.00000000  0.08000000  0.28000000  1.0
  N  N2  6  0.00000000  0.04000000  0.00000000  1.0
