# generated using pymatgen
data_Rb(AgAu)2
_symmetry_space_group_name_H-M   P-3m1
_cell_length_a   7.21032600
_cell_length_b   7.21032600
_cell_length_c   8.65415600
_cell_angle_alpha   90.00000000
_cell_angle_beta   90.00000000
_cell_angle_gamma   120.00000000
_symmetry_Int_Tables_number   164
_chemical_formula_structural   Rb(AgAu)2
_chemical_formula_sum   'Rb6 Ag12 Au12'
_cell_volume   389.64145194
_cell_formula_units_Z   6
loop_
 _symmetry_equiv_pos_site_id
 _symmetry_equiv_pos_as_xyz
  1  'x, y, z'
  2  'x, y, z'
  3  '-x, -y, -z'
  4  '-x, -y, -z'
  5  '-y, x-y, z'
  6  '-y, x-y, z'
  7  'y, -x+y, -z'
  8  'y, -x+y, -z'
  9  '-x+y, -x, z'
  10  '-x+y, -x, z'
  11  'x-y, x, -z'
  12  'x-y, x, -z'
  13  'y, x, -z'
  14  'y, x, -z'
  15  '-y, -x, z'
  16  '-y, -x, z'
  17  'x-y, -y, -z'
  18  'x-y, -y, -z'
  19  '-x+y, y, z'
  20  '-x+y, y, z'
  21  '-x, -x+y, -z'
  22  '-x, -x+y, -z'
  23  'x, x-y, z'
  24  'x, x-y, z'
loop_
 _atom_site_type_symbol
 _atom_site_label
 _atom_site_symmetry_multiplicity
 _atom_site_fract_x
 _atom_site_fract_y
 _atom_site_fract_z
 _atom_site_occupancy
  Rb  Rb0  6  0.26000000  0.63000000  0.98000000  1.0
  Ag  Ag1  12  0.01000000  0.45000000  -0.00000000  1.0
  Au  Au2  12  -0.00000000  0.41000000  0.08000000  1.0
