# generated using pymatgen
data_ZnTeRh
_symmetry_space_group_name_H-M   R-3
_cell_length_a   5.42523200
_cell_length_b   5.42523200
_cell_length_c   4.61573600
_cell_angle_alpha   90.00000000
_cell_angle_beta   90.00000000
_cell_angle_gamma   120.00000000
_symmetry_Int_Tables_number   148
_chemical_formula_structural   ZnTeRh
_chemical_formula_sum   'Zn18 Te18 Rh18'
_cell_volume   117.65441323
_cell_formula_units_Z   18
loop_
 _symmetry_equiv_pos_site_id
 _symmetry_equiv_pos_as_xyz
  1  'x, y, z'
  2  'x, y, z'
  3  '-x, -y, -z'
  4  '-x, -y, -z'
  5  '-y, x-y, z'
  6  '-y, x-y, z'
  7  'y, -x+y, -z'
  8  'y, -x+y, -z'
  9  '-x+y, -x, z'
  10  '-x+y, -x, z'
  11  'x-y, x, -z'
  12  'x-y, x, -z'
  13  'x+2/3, y+1/3, z+1/3'
  14  'x+2/3, y+1/3, z+1/3'
  15  '-x+2/3, -y+1/3, -z+1/3'
  16  '-x+2/3, -y+1/3, -z+1/3'
  17  '-y+2/3, x-y+1/3, z+1/3'
  18  '-y+2/3, x-y+1/3, z+1/3'
  19  'y+2/3, -x+y+1/3, -z+1/3'
  20  'y+2/3, -x+y+1/3, -z+1/3'
  21  '-x+y+2/3, -x+1/3, z+1/3'
  22  '-x+y+2/3, -x+1/3, z+1/3'
  23  'x-y+2/3, x+1/3, -z+1/3'
  24  'x-y+2/3, x+1/3, -z+1/3'
  25  'x+1/3, y+2/3, z+2/3'
  26  'x+1/3, y+2/3, z+2/3'
  27  '-x+1/3, -y+2/3, -z+2/3'
  28  '-x+1/3, -y+2/3, -z+2/3'
  29  '-y+1/3, x-y+2/3, z+2/3'
  30  '-y+1/3, x-y+2/3, z+2/3'
  31  'y+1/3, -x+y+2/3, -z+2/3'
  32  'y+1/3, -x+y+2/3, -z+2/3'
  33  '-x+y+1/3, -x+2/3, z+2/3'
  34  '-x+y+1/3, -x+2/3, z+2/3'
  35  'x-y+1/3, x+2/3, -z+2/3'
  36  'x-y+1/3, x+2/3, -z+2/3'
loop_
 _atom_site_type_symbol
 _atom_site_label
 _atom_site_symmetry_multiplicity
 _atom_site_fract_x
 _atom_site_fract_y
 _atom_site_fract_z
 _atom_site_occupancy
  Zn  Zn0  18  0.00000000  0.07000000  0.10000000  1.0
  Te  Te1  18  0.00666667  0.32333333  0.33333333  1.0
  Rh  Rh2  18  0.06000000  0.80000000  0.54000000  1.0
