# generated using pymatgen
data_RbTiBr
_symmetry_space_group_name_H-M   R-3m
_cell_length_a   4.37141560
_cell_length_b   4.37141560
_cell_length_c   13.02812600
_cell_angle_alpha   90.00000000
_cell_angle_beta   90.00000000
_cell_angle_gamma   120.00000000
_symmetry_Int_Tables_number   166
_chemical_formula_structural   RbTiBr
_chemical_formula_sum   'Rb36 Ti36 Br36'
_cell_volume   215.60398190
_cell_formula_units_Z   36
loop_
 _symmetry_equiv_pos_site_id
 _symmetry_equiv_pos_as_xyz
  1  'x, y, z'
  2  'x, y, z'
  3  '-x, -y, -z'
  4  '-x, -y, -z'
  5  '-y, x-y, z'
  6  '-y, x-y, z'
  7  'y, -x+y, -z'
  8  'y, -x+y, -z'
  9  '-x+y, -x, z'
  10  '-x+y, -x, z'
  11  'x-y, x, -z'
  12  'x-y, x, -z'
  13  'y, x, -z'
  14  'y, x, -z'
  15  '-y, -x, z'
  16  '-y, -x, z'
  17  'x-y, -y, -z'
  18  'x-y, -y, -z'
  19  '-x+y, y, z'
  20  '-x+y, y, z'
  21  '-x, -x+y, -z'
  22  '-x, -x+y, -z'
  23  'x, x-y, z'
  24  'x, x-y, z'
  25  'x+2/3, y+1/3, z+1/3'
  26  'x+2/3, y+1/3, z+1/3'
  27  '-x+2/3, -y+1/3, -z+1/3'
  28  '-x+2/3, -y+1/3, -z+1/3'
  29  '-y+2/3, x-y+1/3, z+1/3'
  30  '-y+2/3, x-y+1/3, z+1/3'
  31  'y+2/3, -x+y+1/3, -z+1/3'
  32  'y+2/3, -x+y+1/3, -z+1/3'
  33  '-x+y+2/3, -x+1/3, z+1/3'
  34  '-x+y+2/3, -x+1/3, z+1/3'
  35  'x-y+2/3, x+1/3, -z+1/3'
  36  'x-y+2/3, x+1/3, -z+1/3'
  37  'y+2/3, x+1/3, -z+1/3'
  38  'y+2/3, x+1/3, -z+1/3'
  39  '-y+2/3, -x+1/3, z+1/3'
  40  '-y+2/3, -x+1/3, z+1/3'
  41  'x-y+2/3, -y+1/3, -z+1/3'
  42  'x-y+2/3, -y+1/3, -z+1/3'
  43  '-x+y+2/3, y+1/3, z+1/3'
  44  '-x+y+2/3, y+1/3, z+1/3'
  45  '-x+2/3, -x+y+1/3, -z+1/3'
  46  '-x+2/3, -x+y+1/3, -z+1/3'
  47  'x+2/3, x-y+1/3, z+1/3'
  48  'x+2/3, x-y+1/3, z+1/3'
  49  'x+1/3, y+2/3, z+2/3'
  50  'x+1/3, y+2/3, z+2/3'
  51  '-x+1/3, -y+2/3, -z+2/3'
  52  '-x+1/3, -y+2/3, -z+2/3'
  53  '-y+1/3, x-y+2/3, z+2/3'
  54  '-y+1/3, x-y+2/3, z+2/3'
  55  'y+1/3, -x+y+2/3, -z+2/3'
  56  'y+1/3, -x+y+2/3, -z+2/3'
  57  '-x+y+1/3, -x+2/3, z+2/3'
  58  '-x+y+1/3, -x+2/3, z+2/3'
  59  'x-y+1/3, x+2/3, -z+2/3'
  60  'x-y+1/3, x+2/3, -z+2/3'
  61  'y+1/3, x+2/3, -z+2/3'
  62  'y+1/3, x+2/3, -z+2/3'
  63  '-y+1/3, -x+2/3, z+2/3'
  64  '-y+1/3, -x+2/3, z+2/3'
  65  'x-y+1/3, -y+2/3, -z+2/3'
  66  'x-y+1/3, -y+2/3, -z+2/3'
  67  '-x+y+1/3, y+2/3, z+2/3'
  68  '-x+y+1/3, y+2/3, z+2/3'
  69  '-x+1/3, -x+y+2/3, -z+2/3'
  70  '-x+1/3, -x+y+2/3, -z+2/3'
  71  'x+1/3, x-y+2/3, z+2/3'
  72  'x+1/3, x-y+2/3, z+2/3'
loop_
 _atom_site_type_symbol
 _atom_site_label
 _atom_site_symmetry_multiplicity
 _atom_site_fract_x
 _atom_site_fract_y
 _atom_site_fract_z
 _atom_site_occupancy
  Rb  Rb0  36  0.08333333  0.20666667  0.32666667  1.0
  Ti  Ti1  36  0.03000000  0.11000000  0.00000000  1.0
  Br  Br2  36  0.06666667  0.22333333  0.26333333  1.0
