# generated using pymatgen
data_TcSnBi
_symmetry_space_group_name_H-M   I-42d
_cell_length_a   3.77893450
_cell_length_b   3.77893450
_cell_length_c   9.34221650
_cell_angle_alpha   90.00000000
_cell_angle_beta   90.00000000
_cell_angle_gamma   90.00000000
_symmetry_Int_Tables_number   122
_chemical_formula_structural   TcSnBi
_chemical_formula_sum   'Tc16 Sn16 Bi16'
_cell_volume   133.41008361
_cell_formula_units_Z   16
loop_
 _symmetry_equiv_pos_site_id
 _symmetry_equiv_pos_as_xyz
  1  'x, y, z'
  2  'x, y, z'
  3  'y, -x, -z'
  4  'y, -x, -z'
  5  '-x, -y, z'
  6  '-x, -y, z'
  7  '-y, x, -z'
  8  '-y, x, -z'
  9  'x, -y+1/2, -z+1/4'
  10  'x, -y+1/2, -z+1/4'
  11  'y, x+1/2, z+1/4'
  12  'y, x+1/2, z+1/4'
  13  '-x, y+1/2, -z+1/4'
  14  '-x, y+1/2, -z+1/4'
  15  '-y, -x+1/2, z+1/4'
  16  '-y, -x+1/2, z+1/4'
  17  'x+1/2, y+1/2, z+1/2'
  18  'x+1/2, y+1/2, z+1/2'
  19  'y+1/2, -x+1/2, -z+1/2'
  20  'y+1/2, -x+1/2, -z+1/2'
  21  '-x+1/2, -y+1/2, z+1/2'
  22  '-x+1/2, -y+1/2, z+1/2'
  23  '-y+1/2, x+1/2, -z+1/2'
  24  '-y+1/2, x+1/2, -z+1/2'
  25  'x+1/2, -y, -z+3/4'
  26  'x+1/2, -y, -z+3/4'
  27  'y+1/2, x, z+3/4'
  28  'y+1/2, x, z+3/4'
  29  '-x+1/2, y, -z+3/4'
  30  '-x+1/2, y, -z+3/4'
  31  '-y+1/2, -x, z+3/4'
  32  '-y+1/2, -x, z+3/4'
loop_
 _atom_site_type_symbol
 _atom_site_label
 _atom_site_symmetry_multiplicity
 _atom_site_fract_x
 _atom_site_fract_y
 _atom_site_fract_z
 _atom_site_occupancy
  Tc  Tc0  16  0.07000000  0.70000000  0.71000000  1.0
  Sn  Sn1  16  0.00000000  0.16000000  0.00000000  1.0
  Bi  Bi2  16  0.00000000  0.33000000  0.93000000  1.0
