# generated using pymatgen
data_BaCaI
_symmetry_space_group_name_H-M   Pnma
_cell_length_a   5.46816400
_cell_length_b   5.62390230
_cell_length_c   6.82779400
_cell_angle_alpha   90.00000000
_cell_angle_beta   90.00000000
_cell_angle_gamma   90.00000000
_symmetry_Int_Tables_number   62
_chemical_formula_structural   BaCaI
_chemical_formula_sum   'Ba8 Ca8 I8'
_cell_volume   209.97118942
_cell_formula_units_Z   8
loop_
 _symmetry_equiv_pos_site_id
 _symmetry_equiv_pos_as_xyz
  1  'x, y, z'
  2  'x, y, z'
  3  '-x, -y, -z'
  4  '-x, -y, -z'
  5  '-x+1/2, -y, z+1/2'
  6  '-x+1/2, -y, z+1/2'
  7  'x+1/2, y, -z+1/2'
  8  'x+1/2, y, -z+1/2'
  9  'x+1/2, -y+1/2, -z+1/2'
  10  'x+1/2, -y+1/2, -z+1/2'
  11  '-x+1/2, y+1/2, z+1/2'
  12  '-x+1/2, y+1/2, z+1/2'
  13  '-x, y+1/2, -z'
  14  '-x, y+1/2, -z'
  15  'x, -y+1/2, z'
  16  'x, -y+1/2, z'
loop_
 _atom_site_type_symbol
 _atom_site_label
 _atom_site_symmetry_multiplicity
 _atom_site_fract_x
 _atom_site_fract_y
 _atom_site_fract_z
 _atom_site_occupancy
  Ba  Ba0  8  0.10000000  0.03000000  0.03000000  1.0
  Ca  Ca1  8  0.21000000  0.58000000  0.44000000  1.0
  I  I2  8  0.00000000  0.08000000  0.00000000  1.0
