# generated using pymatgen
data_Y(NiP)2
_symmetry_space_group_name_H-M   Fd-3m
_cell_length_a   5.28712000
_cell_length_b   5.28712000
_cell_length_c   5.28712000
_cell_angle_alpha   90.00000000
_cell_angle_beta   90.00000000
_cell_angle_gamma   90.00000000
_symmetry_Int_Tables_number   227
_chemical_formula_structural   Y(NiP)2
_chemical_formula_sum   'Y96 Ni192 P192'
_cell_volume   147.79423798
_cell_formula_units_Z   96
loop_
 _symmetry_equiv_pos_site_id
 _symmetry_equiv_pos_as_xyz
  1  'x, y, z'
  2  'x, y, z'
  3  '-y+1/4, x+1/4, z+1/4'
  4  '-y+1/4, x+1/4, z+1/4'
  5  '-x, -y+1/2, z+1/2'
  6  '-x, -y+1/2, z+1/2'
  7  'y+3/4, -x+1/4, z+3/4'
  8  'y+3/4, -x+1/4, z+3/4'
  9  'x, -y, -z'
  10  'x, -y, -z'
  11  '-y+1/4, -x+3/4, -z+3/4'
  12  '-y+1/4, -x+3/4, -z+3/4'
  13  '-x, y+1/2, -z+1/2'
  14  '-x, y+1/2, -z+1/2'
  15  'y+3/4, x+3/4, -z+1/4'
  16  'y+3/4, x+3/4, -z+1/4'
  17  'z, x, y'
  18  'z, x, y'
  19  'z+1/4, -y+1/4, x+1/4'
  20  'z+1/4, -y+1/4, x+1/4'
  21  'z+1/2, -x, -y+1/2'
  22  'z+1/2, -x, -y+1/2'
  23  'z+3/4, y+3/4, -x+1/4'
  24  'z+3/4, y+3/4, -x+1/4'
  25  '-z, x, -y'
  26  '-z, x, -y'
  27  '-z+3/4, -y+1/4, -x+3/4'
  28  '-z+3/4, -y+1/4, -x+3/4'
  29  '-z+1/2, -x, y+1/2'
  30  '-z+1/2, -x, y+1/2'
  31  '-z+1/4, y+3/4, x+3/4'
  32  '-z+1/4, y+3/4, x+3/4'
  33  'y, z, x'
  34  'y, z, x'
  35  'x+1/4, z+1/4, -y+1/4'
  36  'x+1/4, z+1/4, -y+1/4'
  37  '-y+1/2, z+1/2, -x'
  38  '-y+1/2, z+1/2, -x'
  39  '-x+1/4, z+3/4, y+3/4'
  40  '-x+1/4, z+3/4, y+3/4'
  41  '-y, -z, x'
  42  '-y, -z, x'
  43  '-x+3/4, -z+3/4, -y+1/4'
  44  '-x+3/4, -z+3/4, -y+1/4'
  45  'y+1/2, -z+1/2, -x'
  46  'y+1/2, -z+1/2, -x'
  47  'x+3/4, -z+1/4, y+3/4'
  48  'x+3/4, -z+1/4, y+3/4'
  49  '-x+1/4, -y+1/4, -z+1/4'
  50  '-x+1/4, -y+1/4, -z+1/4'
  51  'y, -x, -z'
  52  'y, -x, -z'
  53  'x+1/4, y+3/4, -z+3/4'
  54  'x+1/4, y+3/4, -z+3/4'
  55  '-y+1/2, x, -z+1/2'
  56  '-y+1/2, x, -z+1/2'
  57  '-x+1/4, y+1/4, z+1/4'
  58  '-x+1/4, y+1/4, z+1/4'
  59  'y, x+1/2, z+1/2'
  60  'y, x+1/2, z+1/2'
  61  'x+1/4, -y+3/4, z+3/4'
  62  'x+1/4, -y+3/4, z+3/4'
  63  '-y+1/2, -x+1/2, z'
  64  '-y+1/2, -x+1/2, z'
  65  '-z+1/4, -x+1/4, -y+1/4'
  66  '-z+1/4, -x+1/4, -y+1/4'
  67  '-z, y, -x'
  68  '-z, y, -x'
  69  '-z+3/4, x+1/4, y+3/4'
  70  '-z+3/4, x+1/4, y+3/4'
  71  '-z+1/2, -y+1/2, x'
  72  '-z+1/2, -y+1/2, x'
  73  'z+1/4, -x+1/4, y+1/4'
  74  'z+1/4, -x+1/4, y+1/4'
  75  'z+1/2, y, x+1/2'
  76  'z+1/2, y, x+1/2'
  77  'z+3/4, x+1/4, -y+3/4'
  78  'z+3/4, x+1/4, -y+3/4'
  79  'z, -y+1/2, -x+1/2'
  80  'z, -y+1/2, -x+1/2'
  81  '-y+1/4, -z+1/4, -x+1/4'
  82  '-y+1/4, -z+1/4, -x+1/4'
  83  '-x, -z, y'
  84  '-x, -z, y'
  85  'y+3/4, -z+3/4, x+1/4'
  86  'y+3/4, -z+3/4, x+1/4'
  87  'x, -z+1/2, -y+1/2'
  88  'x, -z+1/2, -y+1/2'
  89  'y+1/4, z+1/4, -x+1/4'
  90  'y+1/4, z+1/4, -x+1/4'
  91  'x+1/2, z+1/2, y'
  92  'x+1/2, z+1/2, y'
  93  '-y+3/4, z+3/4, x+1/4'
  94  '-y+3/4, z+3/4, x+1/4'
  95  '-x+1/2, z, -y+1/2'
  96  '-x+1/2, z, -y+1/2'
  97  'x+1/2, y+1/2, z'
  98  'x+1/2, y+1/2, z'
  99  '-y+3/4, x+3/4, z+1/4'
  100  '-y+3/4, x+3/4, z+1/4'
  101  '-x+1/2, -y, z+1/2'
  102  '-x+1/2, -y, z+1/2'
  103  'y+1/4, -x+3/4, z+3/4'
  104  'y+1/4, -x+3/4, z+3/4'
  105  'x+1/2, -y+1/2, -z'
  106  'x+1/2, -y+1/2, -z'
  107  '-y+3/4, -x+1/4, -z+3/4'
  108  '-y+3/4, -x+1/4, -z+3/4'
  109  '-x+1/2, y, -z+1/2'
  110  '-x+1/2, y, -z+1/2'
  111  'y+1/4, x+1/4, -z+1/4'
  112  'y+1/4, x+1/4, -z+1/4'
  113  'z+1/2, x+1/2, y'
  114  'z+1/2, x+1/2, y'
  115  'z+3/4, -y+3/4, x+1/4'
  116  'z+3/4, -y+3/4, x+1/4'
  117  'z, -x+1/2, -y+1/2'
  118  'z, -x+1/2, -y+1/2'
  119  'z+1/4, y+1/4, -x+1/4'
  120  'z+1/4, y+1/4, -x+1/4'
  121  '-z+1/2, x+1/2, -y'
  122  '-z+1/2, x+1/2, -y'
  123  '-z+1/4, -y+3/4, -x+3/4'
  124  '-z+1/4, -y+3/4, -x+3/4'
  125  '-z, -x+1/2, y+1/2'
  126  '-z, -x+1/2, y+1/2'
  127  '-z+3/4, y+1/4, x+3/4'
  128  '-z+3/4, y+1/4, x+3/4'
  129  'y+1/2, z+1/2, x'
  130  'y+1/2, z+1/2, x'
  131  'x+3/4, z+3/4, -y+1/4'
  132  'x+3/4, z+3/4, -y+1/4'
  133  '-y, z, -x'
  134  '-y, z, -x'
  135  '-x+3/4, z+1/4, y+3/4'
  136  '-x+3/4, z+1/4, y+3/4'
  137  '-y+1/2, -z+1/2, x'
  138  '-y+1/2, -z+1/2, x'
  139  '-x+1/4, -z+1/4, -y+1/4'
  140  '-x+1/4, -z+1/4, -y+1/4'
  141  'y, -z, -x'
  142  'y, -z, -x'
  143  'x+1/4, -z+3/4, y+3/4'
  144  'x+1/4, -z+3/4, y+3/4'
  145  '-x+3/4, -y+3/4, -z+1/4'
  146  '-x+3/4, -y+3/4, -z+1/4'
  147  'y+1/2, -x+1/2, -z'
  148  'y+1/2, -x+1/2, -z'
  149  'x+3/4, y+1/4, -z+3/4'
  150  'x+3/4, y+1/4, -z+3/4'
  151  '-y, x+1/2, -z+1/2'
  152  '-y, x+1/2, -z+1/2'
  153  '-x+3/4, y+3/4, z+1/4'
  154  '-x+3/4, y+3/4, z+1/4'
  155  'y+1/2, x, z+1/2'
  156  'y+1/2, x, z+1/2'
  157  'x+3/4, -y+1/4, z+3/4'
  158  'x+3/4, -y+1/4, z+3/4'
  159  '-y, -x, z'
  160  '-y, -x, z'
  161  '-z+3/4, -x+3/4, -y+1/4'
  162  '-z+3/4, -x+3/4, -y+1/4'
  163  '-z+1/2, y+1/2, -x'
  164  '-z+1/2, y+1/2, -x'
  165  '-z+1/4, x+3/4, y+3/4'
  166  '-z+1/4, x+3/4, y+3/4'
  167  '-z, -y, x'
  168  '-z, -y, x'
  169  'z+3/4, -x+3/4, y+1/4'
  170  'z+3/4, -x+3/4, y+1/4'
  171  'z, y+1/2, x+1/2'
  172  'z, y+1/2, x+1/2'
  173  'z+1/4, x+3/4, -y+3/4'
  174  'z+1/4, x+3/4, -y+3/4'
  175  'z+1/2, -y, -x+1/2'
  176  'z+1/2, -y, -x+1/2'
  177  '-y+3/4, -z+3/4, -x+1/4'
  178  '-y+3/4, -z+3/4, -x+1/4'
  179  '-x+1/2, -z+1/2, y'
  180  '-x+1/2, -z+1/2, y'
  181  'y+1/4, -z+1/4, x+1/4'
  182  'y+1/4, -z+1/4, x+1/4'
  183  'x+1/2, -z, -y+1/2'
  184  'x+1/2, -z, -y+1/2'
  185  'y+3/4, z+3/4, -x+1/4'
  186  'y+3/4, z+3/4, -x+1/4'
  187  'x, z, y'
  188  'x, z, y'
  189  '-y+1/4, z+1/4, x+1/4'
  190  '-y+1/4, z+1/4, x+1/4'
  191  '-x, z+1/2, -y+1/2'
  192  '-x, z+1/2, -y+1/2'
  193  'x+1/2, y, z+1/2'
  194  'x+1/2, y, z+1/2'
  195  '-y+3/4, x+1/4, z+3/4'
  196  '-y+3/4, x+1/4, z+3/4'
  197  '-x+1/2, -y+1/2, z'
  198  '-x+1/2, -y+1/2, z'
  199  'y+1/4, -x+1/4, z+1/4'
  200  'y+1/4, -x+1/4, z+1/4'
  201  'x+1/2, -y, -z+1/2'
  202  'x+1/2, -y, -z+1/2'
  203  '-y+3/4, -x+3/4, -z+1/4'
  204  '-y+3/4, -x+3/4, -z+1/4'
  205  '-x+1/2, y+1/2, -z'
  206  '-x+1/2, y+1/2, -z'
  207  'y+1/4, x+3/4, -z+3/4'
  208  'y+1/4, x+3/4, -z+3/4'
  209  'z+1/2, x, y+1/2'
  210  'z+1/2, x, y+1/2'
  211  'z+3/4, -y+1/4, x+3/4'
  212  'z+3/4, -y+1/4, x+3/4'
  213  'z, -x, -y'
  214  'z, -x, -y'
  215  'z+1/4, y+3/4, -x+3/4'
  216  'z+1/4, y+3/4, -x+3/4'
  217  '-z+1/2, x, -y+1/2'
  218  '-z+1/2, x, -y+1/2'
  219  '-z+1/4, -y+1/4, -x+1/4'
  220  '-z+1/4, -y+1/4, -x+1/4'
  221  '-z, -x, y'
  222  '-z, -x, y'
  223  '-z+3/4, y+3/4, x+1/4'
  224  '-z+3/4, y+3/4, x+1/4'
  225  'y+1/2, z, x+1/2'
  226  'y+1/2, z, x+1/2'
  227  'x+3/4, z+1/4, -y+3/4'
  228  'x+3/4, z+1/4, -y+3/4'
  229  '-y, z+1/2, -x+1/2'
  230  '-y, z+1/2, -x+1/2'
  231  '-x+3/4, z+3/4, y+1/4'
  232  '-x+3/4, z+3/4, y+1/4'
  233  '-y+1/2, -z, x+1/2'
  234  '-y+1/2, -z, x+1/2'
  235  '-x+1/4, -z+3/4, -y+3/4'
  236  '-x+1/4, -z+3/4, -y+3/4'
  237  'y, -z+1/2, -x+1/2'
  238  'y, -z+1/2, -x+1/2'
  239  'x+1/4, -z+1/4, y+1/4'
  240  'x+1/4, -z+1/4, y+1/4'
  241  '-x+3/4, -y+1/4, -z+3/4'
  242  '-x+3/4, -y+1/4, -z+3/4'
  243  'y+1/2, -x, -z+1/2'
  244  'y+1/2, -x, -z+1/2'
  245  'x+3/4, y+3/4, -z+1/4'
  246  'x+3/4, y+3/4, -z+1/4'
  247  '-y, x, -z'
  248  '-y, x, -z'
  249  '-x+3/4, y+1/4, z+3/4'
  250  '-x+3/4, y+1/4, z+3/4'
  251  'y+1/2, x+1/2, z'
  252  'y+1/2, x+1/2, z'
  253  'x+3/4, -y+3/4, z+1/4'
  254  'x+3/4, -y+3/4, z+1/4'
  255  '-y, -x+1/2, z+1/2'
  256  '-y, -x+1/2, z+1/2'
  257  '-z+3/4, -x+1/4, -y+3/4'
  258  '-z+3/4, -x+1/4, -y+3/4'
  259  '-z+1/2, y, -x+1/2'
  260  '-z+1/2, y, -x+1/2'
  261  '-z+1/4, x+1/4, y+1/4'
  262  '-z+1/4, x+1/4, y+1/4'
  263  '-z, -y+1/2, x+1/2'
  264  '-z, -y+1/2, x+1/2'
  265  'z+3/4, -x+1/4, y+3/4'
  266  'z+3/4, -x+1/4, y+3/4'
  267  'z, y, x'
  268  'z, y, x'
  269  'z+1/4, x+1/4, -y+1/4'
  270  'z+1/4, x+1/4, -y+1/4'
  271  'z+1/2, -y+1/2, -x'
  272  'z+1/2, -y+1/2, -x'
  273  '-y+3/4, -z+1/4, -x+3/4'
  274  '-y+3/4, -z+1/4, -x+3/4'
  275  '-x+1/2, -z, y+1/2'
  276  '-x+1/2, -z, y+1/2'
  277  'y+1/4, -z+3/4, x+3/4'
  278  'y+1/4, -z+3/4, x+3/4'
  279  'x+1/2, -z+1/2, -y'
  280  'x+1/2, -z+1/2, -y'
  281  'y+3/4, z+1/4, -x+3/4'
  282  'y+3/4, z+1/4, -x+3/4'
  283  'x, z+1/2, y+1/2'
  284  'x, z+1/2, y+1/2'
  285  '-y+1/4, z+3/4, x+3/4'
  286  '-y+1/4, z+3/4, x+3/4'
  287  '-x, z, -y'
  288  '-x, z, -y'
  289  'x, y+1/2, z+1/2'
  290  'x, y+1/2, z+1/2'
  291  '-y+1/4, x+3/4, z+3/4'
  292  '-y+1/4, x+3/4, z+3/4'
  293  '-x, -y, z'
  294  '-x, -y, z'
  295  'y+3/4, -x+3/4, z+1/4'
  296  'y+3/4, -x+3/4, z+1/4'
  297  'x, -y+1/2, -z+1/2'
  298  'x, -y+1/2, -z+1/2'
  299  '-y+1/4, -x+1/4, -z+1/4'
  300  '-y+1/4, -x+1/4, -z+1/4'
  301  '-x, y, -z'
  302  '-x, y, -z'
  303  'y+3/4, x+1/4, -z+3/4'
  304  'y+3/4, x+1/4, -z+3/4'
  305  'z, x+1/2, y+1/2'
  306  'z, x+1/2, y+1/2'
  307  'z+1/4, -y+3/4, x+3/4'
  308  'z+1/4, -y+3/4, x+3/4'
  309  'z+1/2, -x+1/2, -y'
  310  'z+1/2, -x+1/2, -y'
  311  'z+3/4, y+1/4, -x+3/4'
  312  'z+3/4, y+1/4, -x+3/4'
  313  '-z, x+1/2, -y+1/2'
  314  '-z, x+1/2, -y+1/2'
  315  '-z+3/4, -y+3/4, -x+1/4'
  316  '-z+3/4, -y+3/4, -x+1/4'
  317  '-z+1/2, -x+1/2, y'
  318  '-z+1/2, -x+1/2, y'
  319  '-z+1/4, y+1/4, x+1/4'
  320  '-z+1/4, y+1/4, x+1/4'
  321  'y, z+1/2, x+1/2'
  322  'y, z+1/2, x+1/2'
  323  'x+1/4, z+3/4, -y+3/4'
  324  'x+1/4, z+3/4, -y+3/4'
  325  '-y+1/2, z, -x+1/2'
  326  '-y+1/2, z, -x+1/2'
  327  '-x+1/4, z+1/4, y+1/4'
  328  '-x+1/4, z+1/4, y+1/4'
  329  '-y, -z+1/2, x+1/2'
  330  '-y, -z+1/2, x+1/2'
  331  '-x+3/4, -z+1/4, -y+3/4'
  332  '-x+3/4, -z+1/4, -y+3/4'
  333  'y+1/2, -z, -x+1/2'
  334  'y+1/2, -z, -x+1/2'
  335  'x+3/4, -z+3/4, y+1/4'
  336  'x+3/4, -z+3/4, y+1/4'
  337  '-x+1/4, -y+3/4, -z+3/4'
  338  '-x+1/4, -y+3/4, -z+3/4'
  339  'y, -x+1/2, -z+1/2'
  340  'y, -x+1/2, -z+1/2'
  341  'x+1/4, y+1/4, -z+1/4'
  342  'x+1/4, y+1/4, -z+1/4'
  343  '-y+1/2, x+1/2, -z'
  344  '-y+1/2, x+1/2, -z'
  345  '-x+1/4, y+3/4, z+3/4'
  346  '-x+1/4, y+3/4, z+3/4'
  347  'y, x, z'
  348  'y, x, z'
  349  'x+1/4, -y+1/4, z+1/4'
  350  'x+1/4, -y+1/4, z+1/4'
  351  '-y+1/2, -x, z+1/2'
  352  '-y+1/2, -x, z+1/2'
  353  '-z+1/4, -x+3/4, -y+3/4'
  354  '-z+1/4, -x+3/4, -y+3/4'
  355  '-z, y+1/2, -x+1/2'
  356  '-z, y+1/2, -x+1/2'
  357  '-z+3/4, x+3/4, y+1/4'
  358  '-z+3/4, x+3/4, y+1/4'
  359  '-z+1/2, -y, x+1/2'
  360  '-z+1/2, -y, x+1/2'
  361  'z+1/4, -x+3/4, y+3/4'
  362  'z+1/4, -x+3/4, y+3/4'
  363  'z+1/2, y+1/2, x'
  364  'z+1/2, y+1/2, x'
  365  'z+3/4, x+3/4, -y+1/4'
  366  'z+3/4, x+3/4, -y+1/4'
  367  'z, -y, -x'
  368  'z, -y, -x'
  369  '-y+1/4, -z+3/4, -x+3/4'
  370  '-y+1/4, -z+3/4, -x+3/4'
  371  '-x, -z+1/2, y+1/2'
  372  '-x, -z+1/2, y+1/2'
  373  'y+3/4, -z+1/4, x+3/4'
  374  'y+3/4, -z+1/4, x+3/4'
  375  'x, -z, -y'
  376  'x, -z, -y'
  377  'y+1/4, z+3/4, -x+3/4'
  378  'y+1/4, z+3/4, -x+3/4'
  379  'x+1/2, z, y+1/2'
  380  'x+1/2, z, y+1/2'
  381  '-y+3/4, z+1/4, x+3/4'
  382  '-y+3/4, z+1/4, x+3/4'
  383  '-x+1/2, z+1/2, -y'
  384  '-x+1/2, z+1/2, -y'
loop_
 _atom_site_type_symbol
 _atom_site_label
 _atom_site_symmetry_multiplicity
 _atom_site_fract_x
 _atom_site_fract_y
 _atom_site_fract_z
 _atom_site_occupancy
  Y  Y0  96  0.08000000  0.12000000  0.12000000  1.0
  Ni  Ni1  192  0.01000000  0.08000000  0.83000000  1.0
  P  P2  192  -0.00000000  0.03000000  0.19000000  1.0
