# generated using pymatgen
data_SiRuO
_symmetry_space_group_name_H-M   R-3c
_cell_length_a   4.69374200
_cell_length_b   4.69374200
_cell_length_c   10.59733600
_cell_angle_alpha   90.00000000
_cell_angle_beta   90.00000000
_cell_angle_gamma   120.00000000
_symmetry_Int_Tables_number   167
_chemical_formula_structural   SiRuO
_chemical_formula_sum   'Si36 Ru36 O36'
_cell_volume   202.19283623
_cell_formula_units_Z   36
loop_
 _symmetry_equiv_pos_site_id
 _symmetry_equiv_pos_as_xyz
  1  'x, y, z'
  2  'x, y, z'
  3  '-x, -y, -z'
  4  '-x, -y, -z'
  5  '-y, x-y, z'
  6  '-y, x-y, z'
  7  'y, -x+y, -z'
  8  'y, -x+y, -z'
  9  '-x+y, -x, z'
  10  '-x+y, -x, z'
  11  'x-y, x, -z'
  12  'x-y, x, -z'
  13  'y, x, -z+1/2'
  14  'y, x, -z+1/2'
  15  '-y, -x, z+1/2'
  16  '-y, -x, z+1/2'
  17  'x-y, -y, -z+1/2'
  18  'x-y, -y, -z+1/2'
  19  '-x+y, y, z+1/2'
  20  '-x+y, y, z+1/2'
  21  '-x, -x+y, -z+1/2'
  22  '-x, -x+y, -z+1/2'
  23  'x, x-y, z+1/2'
  24  'x, x-y, z+1/2'
  25  'x+2/3, y+1/3, z+1/3'
  26  'x+2/3, y+1/3, z+1/3'
  27  '-x+2/3, -y+1/3, -z+1/3'
  28  '-x+2/3, -y+1/3, -z+1/3'
  29  '-y+2/3, x-y+1/3, z+1/3'
  30  '-y+2/3, x-y+1/3, z+1/3'
  31  'y+2/3, -x+y+1/3, -z+1/3'
  32  'y+2/3, -x+y+1/3, -z+1/3'
  33  '-x+y+2/3, -x+1/3, z+1/3'
  34  '-x+y+2/3, -x+1/3, z+1/3'
  35  'x-y+2/3, x+1/3, -z+1/3'
  36  'x-y+2/3, x+1/3, -z+1/3'
  37  'y+2/3, x+1/3, -z+5/6'
  38  'y+2/3, x+1/3, -z+5/6'
  39  '-y+2/3, -x+1/3, z+5/6'
  40  '-y+2/3, -x+1/3, z+5/6'
  41  'x-y+2/3, -y+1/3, -z+5/6'
  42  'x-y+2/3, -y+1/3, -z+5/6'
  43  '-x+y+2/3, y+1/3, z+5/6'
  44  '-x+y+2/3, y+1/3, z+5/6'
  45  '-x+2/3, -x+y+1/3, -z+5/6'
  46  '-x+2/3, -x+y+1/3, -z+5/6'
  47  'x+2/3, x-y+1/3, z+5/6'
  48  'x+2/3, x-y+1/3, z+5/6'
  49  'x+1/3, y+2/3, z+2/3'
  50  'x+1/3, y+2/3, z+2/3'
  51  '-x+1/3, -y+2/3, -z+2/3'
  52  '-x+1/3, -y+2/3, -z+2/3'
  53  '-y+1/3, x-y+2/3, z+2/3'
  54  '-y+1/3, x-y+2/3, z+2/3'
  55  'y+1/3, -x+y+2/3, -z+2/3'
  56  'y+1/3, -x+y+2/3, -z+2/3'
  57  '-x+y+1/3, -x+2/3, z+2/3'
  58  '-x+y+1/3, -x+2/3, z+2/3'
  59  'x-y+1/3, x+2/3, -z+2/3'
  60  'x-y+1/3, x+2/3, -z+2/3'
  61  'y+1/3, x+2/3, -z+1/6'
  62  'y+1/3, x+2/3, -z+1/6'
  63  '-y+1/3, -x+2/3, z+1/6'
  64  '-y+1/3, -x+2/3, z+1/6'
  65  'x-y+1/3, -y+2/3, -z+1/6'
  66  'x-y+1/3, -y+2/3, -z+1/6'
  67  '-x+y+1/3, y+2/3, z+1/6'
  68  '-x+y+1/3, y+2/3, z+1/6'
  69  '-x+1/3, -x+y+2/3, -z+1/6'
  70  '-x+1/3, -x+y+2/3, -z+1/6'
  71  'x+1/3, x-y+2/3, z+1/6'
  72  'x+1/3, x-y+2/3, z+1/6'
loop_
 _atom_site_type_symbol
 _atom_site_label
 _atom_site_symmetry_multiplicity
 _atom_site_fract_x
 _atom_site_fract_y
 _atom_site_fract_z
 _atom_site_occupancy
  Si  Si0  36  0.06333333  0.21666667  0.66666667  1.0
  Ru  Ru1  36  0.02333333  0.42666667  0.23666667  1.0
  O  O2  36  0.07000000  0.20000000  0.88000000  1.0
