# generated using pymatgen
data_VMo2Br
_symmetry_space_group_name_H-M   P-3m1
_cell_length_a   4.46709200
_cell_length_b   4.46709200
_cell_length_c   5.90778300
_cell_angle_alpha   90.00000000
_cell_angle_beta   90.00000000
_cell_angle_gamma   120.00000000
_symmetry_Int_Tables_number   164
_chemical_formula_structural   VMo2Br
_chemical_formula_sum   'V6 Mo12 Br6'
_cell_volume   102.09511443
_cell_formula_units_Z   6
loop_
 _symmetry_equiv_pos_site_id
 _symmetry_equiv_pos_as_xyz
  1  'x, y, z'
  2  'x, y, z'
  3  '-x, -y, -z'
  4  '-x, -y, -z'
  5  '-y, x-y, z'
  6  '-y, x-y, z'
  7  'y, -x+y, -z'
  8  'y, -x+y, -z'
  9  '-x+y, -x, z'
  10  '-x+y, -x, z'
  11  'x-y, x, -z'
  12  'x-y, x, -z'
  13  'y, x, -z'
  14  'y, x, -z'
  15  '-y, -x, z'
  16  '-y, -x, z'
  17  'x-y, -y, -z'
  18  'x-y, -y, -z'
  19  '-x+y, y, z'
  20  '-x+y, y, z'
  21  '-x, -x+y, -z'
  22  '-x, -x+y, -z'
  23  'x, x-y, z'
  24  'x, x-y, z'
loop_
 _atom_site_type_symbol
 _atom_site_label
 _atom_site_symmetry_multiplicity
 _atom_site_fract_x
 _atom_site_fract_y
 _atom_site_fract_z
 _atom_site_occupancy
  V  V0  6  0.32000000  0.64000000  0.15000000  1.0
  Mo  Mo1  12  0.11000000  0.33000000  0.47000000  1.0
  Br  Br2  6  0.00000000  0.07000000  0.00000000  1.0
