# generated using pymatgen
data_Al(IBr)2
_symmetry_space_group_name_H-M   Immm
_cell_length_a   4.41679900
_cell_length_b   5.29801030
_cell_length_c   10.75140100
_cell_angle_alpha   90.00000000
_cell_angle_beta   90.00000000
_cell_angle_gamma   90.00000000
_symmetry_Int_Tables_number   71
_chemical_formula_structural   Al(IBr)2
_chemical_formula_sum   'Al8 I16 Br16'
_cell_volume   251.58543464
_cell_formula_units_Z   8
loop_
 _symmetry_equiv_pos_site_id
 _symmetry_equiv_pos_as_xyz
  1  'x, y, z'
  2  'x, y, z'
  3  '-x, -y, -z'
  4  '-x, -y, -z'
  5  '-x, -y, z'
  6  '-x, -y, z'
  7  'x, y, -z'
  8  'x, y, -z'
  9  'x, -y, -z'
  10  'x, -y, -z'
  11  '-x, y, z'
  12  '-x, y, z'
  13  '-x, y, -z'
  14  '-x, y, -z'
  15  'x, -y, z'
  16  'x, -y, z'
  17  'x+1/2, y+1/2, z+1/2'
  18  'x+1/2, y+1/2, z+1/2'
  19  '-x+1/2, -y+1/2, -z+1/2'
  20  '-x+1/2, -y+1/2, -z+1/2'
  21  '-x+1/2, -y+1/2, z+1/2'
  22  '-x+1/2, -y+1/2, z+1/2'
  23  'x+1/2, y+1/2, -z+1/2'
  24  'x+1/2, y+1/2, -z+1/2'
  25  'x+1/2, -y+1/2, -z+1/2'
  26  'x+1/2, -y+1/2, -z+1/2'
  27  '-x+1/2, y+1/2, z+1/2'
  28  '-x+1/2, y+1/2, z+1/2'
  29  '-x+1/2, y+1/2, -z+1/2'
  30  '-x+1/2, y+1/2, -z+1/2'
  31  'x+1/2, -y+1/2, z+1/2'
  32  'x+1/2, -y+1/2, z+1/2'
loop_
 _atom_site_type_symbol
 _atom_site_label
 _atom_site_symmetry_multiplicity
 _atom_site_fract_x
 _atom_site_fract_y
 _atom_site_fract_z
 _atom_site_occupancy
  Al  Al0  8  0.00000000  0.37000000  0.38000000  1.0
  I  I1  16  0.10000000  0.41000000  0.34000000  1.0
  Br  Br2  16  0.20000000  0.19000000  0.32000000  1.0
