# generated using pymatgen
data_Cr2InRe4
_symmetry_space_group_name_H-M   P6/mmm
_cell_length_a   3.99872260
_cell_length_b   3.99872260
_cell_length_c   6.12693900
_cell_angle_alpha   90.00000000
_cell_angle_beta   90.00000000
_cell_angle_gamma   120.00000000
_symmetry_Int_Tables_number   191
_chemical_formula_structural   Cr2InRe4
_chemical_formula_sum   'Cr12 In6 Re24'
_cell_volume   84.84314186
_cell_formula_units_Z   6
loop_
 _symmetry_equiv_pos_site_id
 _symmetry_equiv_pos_as_xyz
  1  'x, y, z'
  2  'x, y, z'
  3  '-x, -y, -z'
  4  '-x, -y, -z'
  5  'x-y, x, z'
  6  'x-y, x, z'
  7  '-x+y, -x, -z'
  8  '-x+y, -x, -z'
  9  '-y, x-y, z'
  10  '-y, x-y, z'
  11  'y, -x+y, -z'
  12  'y, -x+y, -z'
  13  '-x, -y, z'
  14  '-x, -y, z'
  15  'x, y, -z'
  16  'x, y, -z'
  17  '-x+y, -x, z'
  18  '-x+y, -x, z'
  19  'x-y, x, -z'
  20  'x-y, x, -z'
  21  'y, -x+y, z'
  22  'y, -x+y, z'
  23  '-y, x-y, -z'
  24  '-y, x-y, -z'
  25  '-y, -x, -z'
  26  '-y, -x, -z'
  27  'y, x, z'
  28  'y, x, z'
  29  '-x, -x+y, -z'
  30  '-x, -x+y, -z'
  31  'x, x-y, z'
  32  'x, x-y, z'
  33  '-x+y, y, -z'
  34  '-x+y, y, -z'
  35  'x-y, -y, z'
  36  'x-y, -y, z'
  37  'y, x, -z'
  38  'y, x, -z'
  39  '-y, -x, z'
  40  '-y, -x, z'
  41  'x, x-y, -z'
  42  'x, x-y, -z'
  43  '-x, -x+y, z'
  44  '-x, -x+y, z'
  45  'x-y, -y, -z'
  46  'x-y, -y, -z'
  47  '-x+y, y, z'
  48  '-x+y, y, z'
loop_
 _atom_site_type_symbol
 _atom_site_label
 _atom_site_symmetry_multiplicity
 _atom_site_fract_x
 _atom_site_fract_y
 _atom_site_fract_z
 _atom_site_occupancy
  Cr  Cr0  12  0.00000000  0.28000000  0.24000000  1.0
  In  In1  6  0.00000000  0.36000000  0.00000000  1.0
  Re  Re2  24  0.02000000  0.19000000  0.21000000  1.0
