# generated using pymatgen
data_TiPdN
_symmetry_space_group_name_H-M   Pnma
_cell_length_a   5.67981700
_cell_length_b   4.42246250
_cell_length_c   6.64582540
_cell_angle_alpha   90.00000000
_cell_angle_beta   90.00000000
_cell_angle_gamma   90.00000000
_symmetry_Int_Tables_number   62
_chemical_formula_structural   TiPdN
_chemical_formula_sum   'Ti8 Pd8 N8'
_cell_volume   166.93501078
_cell_formula_units_Z   8
loop_
 _symmetry_equiv_pos_site_id
 _symmetry_equiv_pos_as_xyz
  1  'x, y, z'
  2  'x, y, z'
  3  '-x, -y, -z'
  4  '-x, -y, -z'
  5  '-x+1/2, -y, z+1/2'
  6  '-x+1/2, -y, z+1/2'
  7  'x+1/2, y, -z+1/2'
  8  'x+1/2, y, -z+1/2'
  9  'x+1/2, -y+1/2, -z+1/2'
  10  'x+1/2, -y+1/2, -z+1/2'
  11  '-x+1/2, y+1/2, z+1/2'
  12  '-x+1/2, y+1/2, z+1/2'
  13  '-x, y+1/2, -z'
  14  '-x, y+1/2, -z'
  15  'x, -y+1/2, z'
  16  'x, -y+1/2, z'
loop_
 _atom_site_type_symbol
 _atom_site_label
 _atom_site_symmetry_multiplicity
 _atom_site_fract_x
 _atom_site_fract_y
 _atom_site_fract_z
 _atom_site_occupancy
  Ti  Ti0  8  0.06000000  0.05000000  0.46000000  1.0
  Pd  Pd1  8  0.21000000  0.17000000  0.50000000  1.0
  N  N2  8  0.23000000  0.08000000  0.08000000  1.0
