# generated using pymatgen
data_Sr(TcPd)4
_symmetry_space_group_name_H-M   P6_3/mmc
_cell_length_a   4.10766650
_cell_length_b   4.10766650
_cell_length_c   7.40210770
_cell_angle_alpha   90.00000000
_cell_angle_beta   90.00000000
_cell_angle_gamma   120.00000000
_symmetry_Int_Tables_number   194
_chemical_formula_structural   Sr(TcPd)4
_chemical_formula_sum   'Sr6 Tc24 Pd24'
_cell_volume   108.16241707
_cell_formula_units_Z   6
loop_
 _symmetry_equiv_pos_site_id
 _symmetry_equiv_pos_as_xyz
  1  'x, y, z'
  2  'x, y, z'
  3  '-x, -y, -z'
  4  '-x, -y, -z'
  5  'x-y, x, z+1/2'
  6  'x-y, x, z+1/2'
  7  '-x+y, -x, -z+1/2'
  8  '-x+y, -x, -z+1/2'
  9  '-y, x-y, z'
  10  '-y, x-y, z'
  11  'y, -x+y, -z'
  12  'y, -x+y, -z'
  13  '-x, -y, z+1/2'
  14  '-x, -y, z+1/2'
  15  'x, y, -z+1/2'
  16  'x, y, -z+1/2'
  17  '-x+y, -x, z'
  18  '-x+y, -x, z'
  19  'x-y, x, -z'
  20  'x-y, x, -z'
  21  'y, -x+y, z+1/2'
  22  'y, -x+y, z+1/2'
  23  '-y, x-y, -z+1/2'
  24  '-y, x-y, -z+1/2'
  25  '-y, -x, -z+1/2'
  26  '-y, -x, -z+1/2'
  27  'y, x, z+1/2'
  28  'y, x, z+1/2'
  29  '-x, -x+y, -z'
  30  '-x, -x+y, -z'
  31  'x, x-y, z'
  32  'x, x-y, z'
  33  '-x+y, y, -z+1/2'
  34  '-x+y, y, -z+1/2'
  35  'x-y, -y, z+1/2'
  36  'x-y, -y, z+1/2'
  37  'y, x, -z'
  38  'y, x, -z'
  39  '-y, -x, z'
  40  '-y, -x, z'
  41  'x, x-y, -z+1/2'
  42  'x, x-y, -z+1/2'
  43  '-x, -x+y, z+1/2'
  44  '-x, -x+y, z+1/2'
  45  'x-y, -y, -z'
  46  'x-y, -y, -z'
  47  '-x+y, y, z'
  48  '-x+y, y, z'
loop_
 _atom_site_type_symbol
 _atom_site_label
 _atom_site_symmetry_multiplicity
 _atom_site_fract_x
 _atom_site_fract_y
 _atom_site_fract_z
 _atom_site_occupancy
  Sr  Sr0  6  0.00000000  0.50000000  0.00000000  1.0
  Tc  Tc1  24  0.09000000  0.52000000  0.05000000  1.0
  Pd  Pd2  24  0.04000000  0.35000000  0.72000000  1.0
