# generated using pymatgen
data_Ba2YBr4
_symmetry_space_group_name_H-M   I4/mmm
_cell_length_a   3.85848570
_cell_length_b   3.85848570
_cell_length_c   10.66821100
_cell_angle_alpha   90.00000000
_cell_angle_beta   90.00000000
_cell_angle_gamma   90.00000000
_symmetry_Int_Tables_number   139
_chemical_formula_structural   Ba2YBr4
_chemical_formula_sum   'Ba16 Y8 Br32'
_cell_volume   158.82738547
_cell_formula_units_Z   8
loop_
 _symmetry_equiv_pos_site_id
 _symmetry_equiv_pos_as_xyz
  1  'x, y, z'
  2  'x, y, z'
  3  '-x, -y, -z'
  4  '-x, -y, -z'
  5  '-y, x, z'
  6  '-y, x, z'
  7  'y, -x, -z'
  8  'y, -x, -z'
  9  '-x, -y, z'
  10  '-x, -y, z'
  11  'x, y, -z'
  12  'x, y, -z'
  13  'y, -x, z'
  14  'y, -x, z'
  15  '-y, x, -z'
  16  '-y, x, -z'
  17  'x, -y, -z'
  18  'x, -y, -z'
  19  '-x, y, z'
  20  '-x, y, z'
  21  '-y, -x, -z'
  22  '-y, -x, -z'
  23  'y, x, z'
  24  'y, x, z'
  25  '-x, y, -z'
  26  '-x, y, -z'
  27  'x, -y, z'
  28  'x, -y, z'
  29  'y, x, -z'
  30  'y, x, -z'
  31  '-y, -x, z'
  32  '-y, -x, z'
  33  'x+1/2, y+1/2, z+1/2'
  34  'x+1/2, y+1/2, z+1/2'
  35  '-x+1/2, -y+1/2, -z+1/2'
  36  '-x+1/2, -y+1/2, -z+1/2'
  37  '-y+1/2, x+1/2, z+1/2'
  38  '-y+1/2, x+1/2, z+1/2'
  39  'y+1/2, -x+1/2, -z+1/2'
  40  'y+1/2, -x+1/2, -z+1/2'
  41  '-x+1/2, -y+1/2, z+1/2'
  42  '-x+1/2, -y+1/2, z+1/2'
  43  'x+1/2, y+1/2, -z+1/2'
  44  'x+1/2, y+1/2, -z+1/2'
  45  'y+1/2, -x+1/2, z+1/2'
  46  'y+1/2, -x+1/2, z+1/2'
  47  '-y+1/2, x+1/2, -z+1/2'
  48  '-y+1/2, x+1/2, -z+1/2'
  49  'x+1/2, -y+1/2, -z+1/2'
  50  'x+1/2, -y+1/2, -z+1/2'
  51  '-x+1/2, y+1/2, z+1/2'
  52  '-x+1/2, y+1/2, z+1/2'
  53  '-y+1/2, -x+1/2, -z+1/2'
  54  '-y+1/2, -x+1/2, -z+1/2'
  55  'y+1/2, x+1/2, z+1/2'
  56  'y+1/2, x+1/2, z+1/2'
  57  '-x+1/2, y+1/2, -z+1/2'
  58  '-x+1/2, y+1/2, -z+1/2'
  59  'x+1/2, -y+1/2, z+1/2'
  60  'x+1/2, -y+1/2, z+1/2'
  61  'y+1/2, x+1/2, -z+1/2'
  62  'y+1/2, x+1/2, -z+1/2'
  63  '-y+1/2, -x+1/2, z+1/2'
  64  '-y+1/2, -x+1/2, z+1/2'
loop_
 _atom_site_type_symbol
 _atom_site_label
 _atom_site_symmetry_multiplicity
 _atom_site_fract_x
 _atom_site_fract_y
 _atom_site_fract_z
 _atom_site_occupancy
  Ba  Ba0  16  0.04000000  0.14000000  0.50000000  1.0
  Y  Y1  8  0.00000000  0.14000000  0.00000000  1.0
  Br  Br2  32  0.04000000  0.45000000  0.22000000  1.0
