# generated using pymatgen
data_NbAgTe
_symmetry_space_group_name_H-M   P6_3/mmc
_cell_length_a   4.38278900
_cell_length_b   4.38278900
_cell_length_c   5.73556100
_cell_angle_alpha   90.00000000
_cell_angle_beta   90.00000000
_cell_angle_gamma   120.00000000
_symmetry_Int_Tables_number   194
_chemical_formula_structural   NbAgTe
_chemical_formula_sum   'Nb24 Ag24 Te24'
_cell_volume   95.41302404
_cell_formula_units_Z   24
loop_
 _symmetry_equiv_pos_site_id
 _symmetry_equiv_pos_as_xyz
  1  'x, y, z'
  2  'x, y, z'
  3  '-x, -y, -z'
  4  '-x, -y, -z'
  5  'x-y, x, z+1/2'
  6  'x-y, x, z+1/2'
  7  '-x+y, -x, -z+1/2'
  8  '-x+y, -x, -z+1/2'
  9  '-y, x-y, z'
  10  '-y, x-y, z'
  11  'y, -x+y, -z'
  12  'y, -x+y, -z'
  13  '-x, -y, z+1/2'
  14  '-x, -y, z+1/2'
  15  'x, y, -z+1/2'
  16  'x, y, -z+1/2'
  17  '-x+y, -x, z'
  18  '-x+y, -x, z'
  19  'x-y, x, -z'
  20  'x-y, x, -z'
  21  'y, -x+y, z+1/2'
  22  'y, -x+y, z+1/2'
  23  '-y, x-y, -z+1/2'
  24  '-y, x-y, -z+1/2'
  25  '-y, -x, -z+1/2'
  26  '-y, -x, -z+1/2'
  27  'y, x, z+1/2'
  28  'y, x, z+1/2'
  29  '-x, -x+y, -z'
  30  '-x, -x+y, -z'
  31  'x, x-y, z'
  32  'x, x-y, z'
  33  '-x+y, y, -z+1/2'
  34  '-x+y, y, -z+1/2'
  35  'x-y, -y, z+1/2'
  36  'x-y, -y, z+1/2'
  37  'y, x, -z'
  38  'y, x, -z'
  39  '-y, -x, z'
  40  '-y, -x, z'
  41  'x, x-y, -z+1/2'
  42  'x, x-y, -z+1/2'
  43  '-x, -x+y, z+1/2'
  44  '-x, -x+y, z+1/2'
  45  'x-y, -y, -z'
  46  'x-y, -y, -z'
  47  '-x+y, y, z'
  48  '-x+y, y, z'
loop_
 _atom_site_type_symbol
 _atom_site_label
 _atom_site_symmetry_multiplicity
 _atom_site_fract_x
 _atom_site_fract_y
 _atom_site_fract_z
 _atom_site_occupancy
  Nb  Nb0  24  -0.00000000  0.21000000  0.01000000  1.0
  Ag  Ag1  24  0.09000000  0.25000000  0.67000000  1.0
  Te  Te2  24  0.07000000  0.43000000  0.58000000  1.0
