# generated using pymatgen
data_YTlIn
_symmetry_space_group_name_H-M   P6_3mc
_cell_length_a   4.47862770
_cell_length_b   4.47862770
_cell_length_c   5.28282980
_cell_angle_alpha   90.00000000
_cell_angle_beta   90.00000000
_cell_angle_gamma   120.00000000
_symmetry_Int_Tables_number   186
_chemical_formula_structural   YTlIn
_chemical_formula_sum   'Y12 Tl12 In12'
_cell_volume   91.76713527
_cell_formula_units_Z   12
loop_
 _symmetry_equiv_pos_site_id
 _symmetry_equiv_pos_as_xyz
  1  'x, y, z'
  2  'x, y, z'
  3  'x-y, x, z+1/2'
  4  'x-y, x, z+1/2'
  5  '-y, x-y, z'
  6  '-y, x-y, z'
  7  '-x, -y, z+1/2'
  8  '-x, -y, z+1/2'
  9  '-x+y, -x, z'
  10  '-x+y, -x, z'
  11  'y, -x+y, z+1/2'
  12  'y, -x+y, z+1/2'
  13  'y, x, z+1/2'
  14  'y, x, z+1/2'
  15  'x, x-y, z'
  16  'x, x-y, z'
  17  'x-y, -y, z+1/2'
  18  'x-y, -y, z+1/2'
  19  '-y, -x, z'
  20  '-y, -x, z'
  21  '-x, -x+y, z+1/2'
  22  '-x, -x+y, z+1/2'
  23  '-x+y, y, z'
  24  '-x+y, y, z'
loop_
 _atom_site_type_symbol
 _atom_site_label
 _atom_site_symmetry_multiplicity
 _atom_site_fract_x
 _atom_site_fract_y
 _atom_site_fract_z
 _atom_site_occupancy
  Y  Y0  12  -0.00000000  0.37000000  0.86000000  1.0
  Tl  Tl1  12  0.00000000  0.17000000  0.00000000  1.0
  In  In2  12  0.24000000  0.58000000  0.73000000  1.0
