# generated using pymatgen
data_LiHgN
_symmetry_space_group_name_H-M   Immm
_cell_length_a   6.02371170
_cell_length_b   6.04148150
_cell_length_c   7.06482300
_cell_angle_alpha   90.00000000
_cell_angle_beta   90.00000000
_cell_angle_gamma   90.00000000
_symmetry_Int_Tables_number   71
_chemical_formula_structural   LiHgN
_chemical_formula_sum   'Li16 Hg16 N16'
_cell_volume   257.10404745
_cell_formula_units_Z   16
loop_
 _symmetry_equiv_pos_site_id
 _symmetry_equiv_pos_as_xyz
  1  'x, y, z'
  2  'x, y, z'
  3  '-x, -y, -z'
  4  '-x, -y, -z'
  5  '-x, -y, z'
  6  '-x, -y, z'
  7  'x, y, -z'
  8  'x, y, -z'
  9  'x, -y, -z'
  10  'x, -y, -z'
  11  '-x, y, z'
  12  '-x, y, z'
  13  '-x, y, -z'
  14  '-x, y, -z'
  15  'x, -y, z'
  16  'x, -y, z'
  17  'x+1/2, y+1/2, z+1/2'
  18  'x+1/2, y+1/2, z+1/2'
  19  '-x+1/2, -y+1/2, -z+1/2'
  20  '-x+1/2, -y+1/2, -z+1/2'
  21  '-x+1/2, -y+1/2, z+1/2'
  22  '-x+1/2, -y+1/2, z+1/2'
  23  'x+1/2, y+1/2, -z+1/2'
  24  'x+1/2, y+1/2, -z+1/2'
  25  'x+1/2, -y+1/2, -z+1/2'
  26  'x+1/2, -y+1/2, -z+1/2'
  27  '-x+1/2, y+1/2, z+1/2'
  28  '-x+1/2, y+1/2, z+1/2'
  29  '-x+1/2, y+1/2, -z+1/2'
  30  '-x+1/2, y+1/2, -z+1/2'
  31  'x+1/2, -y+1/2, z+1/2'
  32  'x+1/2, -y+1/2, z+1/2'
loop_
 _atom_site_type_symbol
 _atom_site_label
 _atom_site_symmetry_multiplicity
 _atom_site_fract_x
 _atom_site_fract_y
 _atom_site_fract_z
 _atom_site_occupancy
  Li  Li0  16  0.18000000  0.01000000  0.23000000  1.0
  Hg  Hg1  16  0.13000000  0.82000000  0.41000000  1.0
  N  N2  16  0.22000000  0.49000000  0.42000000  1.0
