# generated using pymatgen
data_NaSiRu
_symmetry_space_group_name_H-M   R-3
_cell_length_a   4.72985840
_cell_length_b   4.72985840
_cell_length_c   5.86091900
_cell_angle_alpha   90.00000000
_cell_angle_beta   90.00000000
_cell_angle_gamma   120.00000000
_symmetry_Int_Tables_number   148
_chemical_formula_structural   NaSiRu
_chemical_formula_sum   'Na18 Si18 Ru18'
_cell_volume   113.55143567
_cell_formula_units_Z   18
loop_
 _symmetry_equiv_pos_site_id
 _symmetry_equiv_pos_as_xyz
  1  'x, y, z'
  2  'x, y, z'
  3  '-x, -y, -z'
  4  '-x, -y, -z'
  5  '-y, x-y, z'
  6  '-y, x-y, z'
  7  'y, -x+y, -z'
  8  'y, -x+y, -z'
  9  '-x+y, -x, z'
  10  '-x+y, -x, z'
  11  'x-y, x, -z'
  12  'x-y, x, -z'
  13  'x+1/3, y+2/3, z+2/3'
  14  'x+1/3, y+2/3, z+2/3'
  15  '-x+1/3, -y+2/3, -z+2/3'
  16  '-x+1/3, -y+2/3, -z+2/3'
  17  '-y+1/3, x-y+2/3, z+2/3'
  18  '-y+1/3, x-y+2/3, z+2/3'
  19  'y+1/3, -x+y+2/3, -z+2/3'
  20  'y+1/3, -x+y+2/3, -z+2/3'
  21  '-x+y+1/3, -x+2/3, z+2/3'
  22  '-x+y+1/3, -x+2/3, z+2/3'
  23  'x-y+1/3, x+2/3, -z+2/3'
  24  'x-y+1/3, x+2/3, -z+2/3'
  25  'x+2/3, y+1/3, z+1/3'
  26  'x+2/3, y+1/3, z+1/3'
  27  '-x+2/3, -y+1/3, -z+1/3'
  28  '-x+2/3, -y+1/3, -z+1/3'
  29  '-y+2/3, x-y+1/3, z+1/3'
  30  '-y+2/3, x-y+1/3, z+1/3'
  31  'y+2/3, -x+y+1/3, -z+1/3'
  32  'y+2/3, -x+y+1/3, -z+1/3'
  33  '-x+y+2/3, -x+1/3, z+1/3'
  34  '-x+y+2/3, -x+1/3, z+1/3'
  35  'x-y+2/3, x+1/3, -z+1/3'
  36  'x-y+2/3, x+1/3, -z+1/3'
loop_
 _atom_site_type_symbol
 _atom_site_label
 _atom_site_symmetry_multiplicity
 _atom_site_fract_x
 _atom_site_fract_y
 _atom_site_fract_z
 _atom_site_occupancy
  Na  Na0  18  0.02666667  0.41333333  0.99333333  1.0
  Si  Si1  18  0.01000000  0.80000000  0.82000000  1.0
  Ru  Ru2  18  0.01000000  0.92000000  0.01000000  1.0
