# generated using pymatgen
data_ZnCdGa
_symmetry_space_group_name_H-M   P6/mmm
_cell_length_a   4.11604200
_cell_length_b   4.11604200
_cell_length_c   5.10123060
_cell_angle_alpha   90.00000000
_cell_angle_beta   90.00000000
_cell_angle_gamma   120.00000000
_symmetry_Int_Tables_number   191
_chemical_formula_structural   ZnCdGa
_chemical_formula_sum   'Zn24 Cd24 Ga24'
_cell_volume   74.84541196
_cell_formula_units_Z   24
loop_
 _symmetry_equiv_pos_site_id
 _symmetry_equiv_pos_as_xyz
  1  'x, y, z'
  2  'x, y, z'
  3  '-x, -y, -z'
  4  '-x, -y, -z'
  5  'x-y, x, z'
  6  'x-y, x, z'
  7  '-x+y, -x, -z'
  8  '-x+y, -x, -z'
  9  '-y, x-y, z'
  10  '-y, x-y, z'
  11  'y, -x+y, -z'
  12  'y, -x+y, -z'
  13  '-x, -y, z'
  14  '-x, -y, z'
  15  'x, y, -z'
  16  'x, y, -z'
  17  '-x+y, -x, z'
  18  '-x+y, -x, z'
  19  'x-y, x, -z'
  20  'x-y, x, -z'
  21  'y, -x+y, z'
  22  'y, -x+y, z'
  23  '-y, x-y, -z'
  24  '-y, x-y, -z'
  25  '-y, -x, -z'
  26  '-y, -x, -z'
  27  'y, x, z'
  28  'y, x, z'
  29  '-x, -x+y, -z'
  30  '-x, -x+y, -z'
  31  'x, x-y, z'
  32  'x, x-y, z'
  33  '-x+y, y, -z'
  34  '-x+y, y, -z'
  35  'x-y, -y, z'
  36  'x-y, -y, z'
  37  'y, x, -z'
  38  'y, x, -z'
  39  '-y, -x, z'
  40  '-y, -x, z'
  41  'x, x-y, -z'
  42  'x, x-y, -z'
  43  '-x, -x+y, z'
  44  '-x, -x+y, z'
  45  'x-y, -y, -z'
  46  'x-y, -y, -z'
  47  '-x+y, y, z'
  48  '-x+y, y, z'
loop_
 _atom_site_type_symbol
 _atom_site_label
 _atom_site_symmetry_multiplicity
 _atom_site_fract_x
 _atom_site_fract_y
 _atom_site_fract_z
 _atom_site_occupancy
  Zn  Zn0  24  0.09000000  0.42000000  0.29000000  1.0
  Cd  Cd1  24  0.23000000  0.51000000  0.26000000  1.0
  Ga  Ga2  24  0.04000000  0.25000000  0.35000000  1.0
