# generated using pymatgen
data_ScAlFeSi5
_symmetry_space_group_name_H-M   'P 1'
_cell_length_a   4.22940292
_cell_length_b   4.23210032
_cell_length_c   6.30347511
_cell_angle_alpha   89.85743831
_cell_angle_beta   89.88919671
_cell_angle_gamma   88.72161218
_symmetry_Int_Tables_number   1
_chemical_formula_structural   ScAlFeSi5
_chemical_formula_sum   'Sc1 Al1 Fe1 Si5'
_cell_volume   112.79889222
_cell_formula_units_Z   1
loop_
 _symmetry_equiv_pos_site_id
 _symmetry_equiv_pos_as_xyz
  1  'x, y, z'
loop_
 _atom_site_type_symbol
 _atom_site_label
 _atom_site_symmetry_multiplicity
 _atom_site_fract_x
 _atom_site_fract_y
 _atom_site_fract_z
 _atom_site_occupancy
  Si  Si0  1  0.55652023  0.04568413  0.80642244  1
  Si  Si1  1  0.06047319  0.55501357  0.23824344  1
  Al  Al2  1  0.05910904  0.04987176  0.52249781  1
  Fe  Fe3  1  0.55640644  0.54602413  0.02206663  1
  Si  Si4  1  0.05706115  0.54885116  0.80633219  1
  Si  Si5  1  0.06125973  0.05279566  0.02254772  1
  Sc  Sc6  1  0.55926462  0.54869483  0.52242014  1
  Si  Si7  1  0.56211235  0.05006983  0.23829400  1
