# generated using pymatgen
data_CaMgBeCr
_symmetry_space_group_name_H-M   'P 1'
_cell_length_a   3.47885501
_cell_length_b   3.47665684
_cell_length_c   6.85411624
_cell_angle_alpha   89.86532994
_cell_angle_beta   90.04401542
_cell_angle_gamma   89.98819588
_symmetry_Int_Tables_number   1
_chemical_formula_structural   CaMgBeCr
_chemical_formula_sum   'Ca1 Mg1 Be1 Cr1'
_cell_volume   82.89880748
_cell_formula_units_Z   1
loop_
 _symmetry_equiv_pos_site_id
 _symmetry_equiv_pos_as_xyz
  1  'x, y, z'
loop_
 _atom_site_type_symbol
 _atom_site_label
 _atom_site_symmetry_multiplicity
 _atom_site_fract_x
 _atom_site_fract_y
 _atom_site_fract_z
 _atom_site_occupancy
  Be  Be0  1  0.08966114  0.12302480  0.51864768  1
  Ca  Ca1  1  0.58986166  0.62285397  0.82567879  1
  Mg  Mg2  1  0.58899570  0.62462983  0.37128945  1
  Cr  Cr3  1  0.08876690  0.12577053  0.16367739  1
