# generated using pymatgen
data_TiBeZnRh
_symmetry_space_group_name_H-M   'P 1'
_cell_length_a   3.10152984
_cell_length_b   3.13103341
_cell_length_c   5.53150708
_cell_angle_alpha   90.01098173
_cell_angle_beta   90.01209840
_cell_angle_gamma   89.98522521
_symmetry_Int_Tables_number   1
_chemical_formula_structural   TiBeZnRh
_chemical_formula_sum   'Ti1 Be1 Zn1 Rh1'
_cell_volume   53.71642562
_cell_formula_units_Z   1
loop_
 _symmetry_equiv_pos_site_id
 _symmetry_equiv_pos_as_xyz
  1  'x, y, z'
loop_
 _atom_site_type_symbol
 _atom_site_label
 _atom_site_symmetry_multiplicity
 _atom_site_fract_x
 _atom_site_fract_y
 _atom_site_fract_z
 _atom_site_occupancy
  Be  Be0  1  0.56103216  0.97221635  0.66879701  1
  Zn  Zn1  1  0.06094276  0.47210813  0.88940759  1
  Ti  Ti2  1  0.06125626  0.47163584  0.41134067  1
  Rh  Rh3  1  0.56129265  0.97193068  0.14869299  1
