# generated using pymatgen
data_Nb6AlRh
_symmetry_space_group_name_H-M   'P 1'
_cell_length_a   4.51835149
_cell_length_b   5.65545129
_cell_length_c   5.65523969
_cell_angle_alpha   105.71685768
_cell_angle_beta   90.01534238
_cell_angle_gamma   90.00873613
_symmetry_Int_Tables_number   1
_chemical_formula_structural   Nb6AlRh
_chemical_formula_sum   'Nb6 Al1 Rh1'
_cell_volume   139.10719024
_cell_formula_units_Z   1
loop_
 _symmetry_equiv_pos_site_id
 _symmetry_equiv_pos_as_xyz
  1  'x, y, z'
loop_
 _atom_site_type_symbol
 _atom_site_label
 _atom_site_symmetry_multiplicity
 _atom_site_fract_x
 _atom_site_fract_y
 _atom_site_fract_z
 _atom_site_occupancy
  Nb  Nb0  1  0.44557804  0.79815986  0.62652135  1
  Nb  Nb1  1  0.44650778  0.29629303  0.62902601  1
  Nb  Nb2  1  0.44653060  0.79646179  0.12848726  1
  Rh  Rh3  1  0.94628432  0.54667932  0.87875857  1
  Nb  Nb4  1  0.44563854  0.29464278  0.13088252  1
  Al  Al5  1  0.94626891  0.04631851  0.37884619  1
  Nb  Nb6  1  0.94572738  0.54624049  0.37848571  1
  Nb  Nb7  1  0.94580596  0.04645029  0.87885408  1
