# generated using pymatgen
data_RbPd2Rh
_symmetry_space_group_name_H-M   'P 1'
_cell_length_a   4.48973844
_cell_length_b   3.80837313
_cell_length_c   4.49808071
_cell_angle_alpha   90.01342359
_cell_angle_beta   90.31987650
_cell_angle_gamma   89.96679808
_symmetry_Int_Tables_number   1
_chemical_formula_structural   RbPd2Rh
_chemical_formula_sum   'Rb1 Pd2 Rh1'
_cell_volume   76.90966588
_cell_formula_units_Z   1
loop_
 _symmetry_equiv_pos_site_id
 _symmetry_equiv_pos_as_xyz
  1  'x, y, z'
loop_
 _atom_site_type_symbol
 _atom_site_label
 _atom_site_symmetry_multiplicity
 _atom_site_fract_x
 _atom_site_fract_y
 _atom_site_fract_z
 _atom_site_occupancy
  Pd  Pd0  1  0.62930631  0.94953174  0.62652863  1
  Pd  Pd1  1  0.12697817  0.94926617  0.12636887  1
  Rb  Rb2  1  0.12936363  0.44927717  0.62635999  1
  Rh  Rh3  1  0.62912261  0.45014547  0.12605911  1
