# generated using pymatgen
data_LiZnSiRh
_symmetry_space_group_name_H-M   'P 1'
_cell_length_a   4.17086079
_cell_length_b   4.20773529
_cell_length_c   4.24913118
_cell_angle_alpha   59.46839688
_cell_angle_beta   60.10771874
_cell_angle_gamma   60.53058879
_symmetry_Int_Tables_number   1
_chemical_formula_structural   LiZnSiRh
_chemical_formula_sum   'Li1 Zn1 Si1 Rh1'
_cell_volume   52.76352699
_cell_formula_units_Z   1
loop_
 _symmetry_equiv_pos_site_id
 _symmetry_equiv_pos_as_xyz
  1  'x, y, z'
loop_
 _atom_site_type_symbol
 _atom_site_label
 _atom_site_symmetry_multiplicity
 _atom_site_fract_x
 _atom_site_fract_y
 _atom_site_fract_z
 _atom_site_occupancy
  Si  Si0  1  0.10976316  0.16724480  0.02289885  1
  Rh  Rh1  1  0.36156691  0.41853941  0.26894286  1
  Li  Li2  1  0.86073614  0.91829761  0.76980611  1
  Zn  Zn3  1  0.60915429  0.66744580  0.52097093  1
