# generated using pymatgen
data_Co3Sn
_symmetry_space_group_name_H-M   'P 1'
_cell_length_a   3.71246458
_cell_length_b   4.56030128
_cell_length_c   4.56084215
_cell_angle_alpha   48.18082378
_cell_angle_beta   65.99988091
_cell_angle_gamma   65.94105949
_symmetry_Int_Tables_number   1
_chemical_formula_structural   Co3Sn
_chemical_formula_sum   'Co3 Sn1'
_cell_volume   51.50260876
_cell_formula_units_Z   1
loop_
 _symmetry_equiv_pos_site_id
 _symmetry_equiv_pos_as_xyz
  1  'x, y, z'
loop_
 _atom_site_type_symbol
 _atom_site_label
 _atom_site_symmetry_multiplicity
 _atom_site_fract_x
 _atom_site_fract_y
 _atom_site_fract_z
 _atom_site_occupancy
  Co  Co0  1  0.60583078  0.94910537  0.26341457  1
  Co  Co1  1  0.85686073  0.20038338  0.51216189  1
  Co  Co2  1  0.10781704  0.44919194  0.76067432  1
  Sn  Sn3  1  0.35751758  0.69917013  0.01190244  1
