# generated using pymatgen
data_CsZrBr
_symmetry_space_group_name_H-M   Pnma
_cell_length_a   7.38638640
_cell_length_b   5.71846100
_cell_length_c   8.08111700
_cell_angle_alpha   90.00000000
_cell_angle_beta   90.00000000
_cell_angle_gamma   90.00000000
_symmetry_Int_Tables_number   62
_chemical_formula_structural   CsZrBr
_chemical_formula_sum   'Cs8 Zr8 Br8'
_cell_volume   341.33638218
_cell_formula_units_Z   8
loop_
 _symmetry_equiv_pos_site_id
 _symmetry_equiv_pos_as_xyz
  1  'x, y, z'
  2  'x, y, z'
  3  '-x, -y, -z'
  4  '-x, -y, -z'
  5  '-x+1/2, -y, z+1/2'
  6  '-x+1/2, -y, z+1/2'
  7  'x+1/2, y, -z+1/2'
  8  'x+1/2, y, -z+1/2'
  9  'x+1/2, -y+1/2, -z+1/2'
  10  'x+1/2, -y+1/2, -z+1/2'
  11  '-x+1/2, y+1/2, z+1/2'
  12  '-x+1/2, y+1/2, z+1/2'
  13  '-x, y+1/2, -z'
  14  '-x, y+1/2, -z'
  15  'x, -y+1/2, z'
  16  'x, -y+1/2, z'
loop_
 _atom_site_type_symbol
 _atom_site_label
 _atom_site_symmetry_multiplicity
 _atom_site_fract_x
 _atom_site_fract_y
 _atom_site_fract_z
 _atom_site_occupancy
  Cs  Cs0  8  0.24000000  0.62000000  0.48000000  1.0
  Zr  Zr1  8  0.01000000  0.00000000  0.14000000  1.0
  Br  Br2  8  0.16000000  0.51000000  0.33000000  1.0
