# generated using pymatgen
data_InSeBr
_symmetry_space_group_name_H-M   Cmcm
_cell_length_a   4.10221340
_cell_length_b   7.27182340
_cell_length_c   8.23973750
_cell_angle_alpha   90.00000000
_cell_angle_beta   90.00000000
_cell_angle_gamma   90.00000000
_symmetry_Int_Tables_number   63
_chemical_formula_structural   InSeBr
_chemical_formula_sum   'In16 Se16 Br16'
_cell_volume   245.79607776
_cell_formula_units_Z   16
loop_
 _symmetry_equiv_pos_site_id
 _symmetry_equiv_pos_as_xyz
  1  'x, y, z'
  2  'x, y, z'
  3  '-x, -y, -z'
  4  '-x, -y, -z'
  5  '-x, -y, z+1/2'
  6  '-x, -y, z+1/2'
  7  'x, y, -z+1/2'
  8  'x, y, -z+1/2'
  9  'x, -y, -z'
  10  'x, -y, -z'
  11  '-x, y, z'
  12  '-x, y, z'
  13  '-x, y, -z+1/2'
  14  '-x, y, -z+1/2'
  15  'x, -y, z+1/2'
  16  'x, -y, z+1/2'
  17  'x+1/2, y+1/2, z'
  18  'x+1/2, y+1/2, z'
  19  '-x+1/2, -y+1/2, -z'
  20  '-x+1/2, -y+1/2, -z'
  21  '-x+1/2, -y+1/2, z+1/2'
  22  '-x+1/2, -y+1/2, z+1/2'
  23  'x+1/2, y+1/2, -z+1/2'
  24  'x+1/2, y+1/2, -z+1/2'
  25  'x+1/2, -y+1/2, -z'
  26  'x+1/2, -y+1/2, -z'
  27  '-x+1/2, y+1/2, z'
  28  '-x+1/2, y+1/2, z'
  29  '-x+1/2, y+1/2, -z+1/2'
  30  '-x+1/2, y+1/2, -z+1/2'
  31  'x+1/2, -y+1/2, z+1/2'
  32  'x+1/2, -y+1/2, z+1/2'
loop_
 _atom_site_type_symbol
 _atom_site_label
 _atom_site_symmetry_multiplicity
 _atom_site_fract_x
 _atom_site_fract_y
 _atom_site_fract_z
 _atom_site_occupancy
  In  In0  16  0.24000000  0.47000000  0.69000000  1.0
  Se  Se1  16  0.08000000  0.30000000  0.14000000  1.0
  Br  Br2  16  0.20000000  0.32000000  0.00000000  1.0
