# generated using pymatgen
data_RbAlS
_symmetry_space_group_name_H-M   I4/mcm
_cell_length_a   3.72682520
_cell_length_b   3.72682520
_cell_length_c   11.10244400
_cell_angle_alpha   90.00000000
_cell_angle_beta   90.00000000
_cell_angle_gamma   90.00000000
_symmetry_Int_Tables_number   140
_chemical_formula_structural   RbAlS
_chemical_formula_sum   'Rb32 Al32 S32'
_cell_volume   154.20435466
_cell_formula_units_Z   32
loop_
 _symmetry_equiv_pos_site_id
 _symmetry_equiv_pos_as_xyz
  1  'x, y, z'
  2  'x, y, z'
  3  '-x, -y, -z'
  4  '-x, -y, -z'
  5  '-y, x, z'
  6  '-y, x, z'
  7  'y, -x, -z'
  8  'y, -x, -z'
  9  '-x, -y, z'
  10  '-x, -y, z'
  11  'x, y, -z'
  12  'x, y, -z'
  13  'y, -x, z'
  14  'y, -x, z'
  15  '-y, x, -z'
  16  '-y, x, -z'
  17  'x, -y, -z+1/2'
  18  'x, -y, -z+1/2'
  19  '-x, y, z+1/2'
  20  '-x, y, z+1/2'
  21  '-y, -x, -z+1/2'
  22  '-y, -x, -z+1/2'
  23  'y, x, z+1/2'
  24  'y, x, z+1/2'
  25  '-x, y, -z+1/2'
  26  '-x, y, -z+1/2'
  27  'x, -y, z+1/2'
  28  'x, -y, z+1/2'
  29  'y, x, -z+1/2'
  30  'y, x, -z+1/2'
  31  '-y, -x, z+1/2'
  32  '-y, -x, z+1/2'
  33  'x+1/2, y+1/2, z+1/2'
  34  'x+1/2, y+1/2, z+1/2'
  35  '-x+1/2, -y+1/2, -z+1/2'
  36  '-x+1/2, -y+1/2, -z+1/2'
  37  '-y+1/2, x+1/2, z+1/2'
  38  '-y+1/2, x+1/2, z+1/2'
  39  'y+1/2, -x+1/2, -z+1/2'
  40  'y+1/2, -x+1/2, -z+1/2'
  41  '-x+1/2, -y+1/2, z+1/2'
  42  '-x+1/2, -y+1/2, z+1/2'
  43  'x+1/2, y+1/2, -z+1/2'
  44  'x+1/2, y+1/2, -z+1/2'
  45  'y+1/2, -x+1/2, z+1/2'
  46  'y+1/2, -x+1/2, z+1/2'
  47  '-y+1/2, x+1/2, -z+1/2'
  48  '-y+1/2, x+1/2, -z+1/2'
  49  'x+1/2, -y+1/2, -z'
  50  'x+1/2, -y+1/2, -z'
  51  '-x+1/2, y+1/2, z'
  52  '-x+1/2, y+1/2, z'
  53  '-y+1/2, -x+1/2, -z'
  54  '-y+1/2, -x+1/2, -z'
  55  'y+1/2, x+1/2, z'
  56  'y+1/2, x+1/2, z'
  57  '-x+1/2, y+1/2, -z'
  58  '-x+1/2, y+1/2, -z'
  59  'x+1/2, -y+1/2, z'
  60  'x+1/2, -y+1/2, z'
  61  'y+1/2, x+1/2, -z'
  62  'y+1/2, x+1/2, -z'
  63  '-y+1/2, -x+1/2, z'
  64  '-y+1/2, -x+1/2, z'
loop_
 _atom_site_type_symbol
 _atom_site_label
 _atom_site_symmetry_multiplicity
 _atom_site_fract_x
 _atom_site_fract_y
 _atom_site_fract_z
 _atom_site_occupancy
  Rb  Rb0  32  0.04000000  0.11000000  0.99000000  1.0
  Al  Al1  32  0.00000000  0.05000000  0.06000000  1.0
  S  S2  32  0.00000000  0.32000000  0.79000000  1.0
