# generated using pymatgen
data_MnZnBr
_symmetry_space_group_name_H-M   P4/nmm
_cell_length_a   3.85557770
_cell_length_b   3.85557770
_cell_length_c   5.11712930
_cell_angle_alpha   90.00000000
_cell_angle_beta   90.00000000
_cell_angle_gamma   90.00000000
_symmetry_Int_Tables_number   129
_chemical_formula_structural   MnZnBr
_chemical_formula_sum   'Mn8 Zn8 Br8'
_cell_volume   76.06858020
_cell_formula_units_Z   8
loop_
 _symmetry_equiv_pos_site_id
 _symmetry_equiv_pos_as_xyz
  1  'x, y, z'
  2  'x, y, z'
  3  '-y+1/2, x+1/2, z'
  4  '-y+1/2, x+1/2, z'
  5  '-x, -y, z'
  6  '-x, -y, z'
  7  'y+1/2, -x+1/2, z'
  8  'y+1/2, -x+1/2, z'
  9  'x+1/2, -y+1/2, -z'
  10  'x+1/2, -y+1/2, -z'
  11  '-y, -x, -z'
  12  '-y, -x, -z'
  13  '-x+1/2, y+1/2, -z'
  14  '-x+1/2, y+1/2, -z'
  15  'y, x, -z'
  16  'y, x, -z'
  17  '-x+1/2, -y+1/2, -z'
  18  '-x+1/2, -y+1/2, -z'
  19  'y, -x, -z'
  20  'y, -x, -z'
  21  'x+1/2, y+1/2, -z'
  22  'x+1/2, y+1/2, -z'
  23  '-y, x, -z'
  24  '-y, x, -z'
  25  '-x, y, z'
  26  '-x, y, z'
  27  'y+1/2, x+1/2, z'
  28  'y+1/2, x+1/2, z'
  29  'x, -y, z'
  30  'x, -y, z'
  31  '-y+1/2, -x+1/2, z'
  32  '-y+1/2, -x+1/2, z'
loop_
 _atom_site_type_symbol
 _atom_site_label
 _atom_site_symmetry_multiplicity
 _atom_site_fract_x
 _atom_site_fract_y
 _atom_site_fract_z
 _atom_site_occupancy
  Mn  Mn0  8  0.00000000  0.30000000  0.11000000  1.0
  Zn  Zn1  8  0.00000000  0.44000000  0.00000000  1.0
  Br  Br2  8  0.00000000  0.15000000  0.82000000  1.0
